90
IDK
N 7.9209 1.3977 0.0000 
C 8.7131 2.0312 0.0000 
C 9.6308 1.7454 0.0000 
C 9.9150 0.8595 0.0000 
C 10.8342 0.6054 0.0000 
C 10.8342 -0.3439 0.0000 
C 9.9468 -0.5979 0.0000 
C 9.6626 -1.5156 0.0000 
C 10.3419 -2.2494 0.0000 
C 8.7131 -1.7696 0.0000 
C 8.4274 -2.6873 0.0000 
C 7.4780 -2.6873 0.0000 
C 7.1922 -1.8014 0.0000 
C 6.2745 -1.5156 0.0000 
C 5.9888 -0.6297 0.0000 
C 5.0712 -0.3756 0.0000 
C 5.0712 0.5737 0.0000 
C 5.9888 0.8277 0.0000 
C 6.2429 1.7454 0.0000 
C 7.1604 1.9994 0.0000 
C 7.4462 2.9171 0.0000 
C 8.3957 2.9171 0.0000 
C 5.5416 2.4583 0.0000 
N 6.5270 0.0991 0.0000 
Zn 7.9160 0.0728 0.0000 
N 9.3767 0.0991 0.0000 
N 7.9527 -1.1996 0.0000 
C 5.6038 -2.2573 0.0000 
C 4.6261 -2.0473 0.0000 
C 3.9554 -2.7890 0.0000 
C 2.9777 -2.5790 0.0000 
C 2.0000 -2.3690 0.0000 
C 2.7677 -3.5567 0.0000 
C 3.1877 -1.6013 0.0000 
C 4.2624 -3.7407 0.0000 
C 5.2401 -3.9507 0.0000 
C 5.5471 -4.9024 0.0000 
C 5.8541 -5.8541 0.0000 
C 4.5954 -5.2094 0.0000 
C 6.4988 -4.5954 0.0000 
C 5.9108 -3.2090 0.0000 
C 10.3657 2.4236 0.0000 
C 11.3205 2.1262 0.0000 
C 12.0553 2.8044 0.0000 
C 11.8354 3.7800 0.0000 
N 12.5703 4.4581 0.0000 
O 13.5251 4.1608 0.0000 
O 12.3504 5.4337 0.0000 
H 12.8061 5.8541 0.0000 
C 10.8807 4.0773 0.0000 
C 10.1458 3.3991 0.0000 
H 11.3275 0.9809 0.0000 
H 11.3292 -0.7171 0.0000 
H 9.8869 -2.6706 0.0000 
H 10.7631 -2.7044 0.0000 
H 10.7969 -1.8282 0.0000 
H 8.7949 -3.1866 0.0000 
H 7.1131 -3.1885 0.0000 
H 4.5777 -0.7510 0.0000 
H 4.5777 0.9491 0.0000 
H 7.0787 3.4164 0.0000 
H 8.7525 3.4241 0.0000 
H 5.9836 2.8931 0.0000 
H 5.1069 2.9003 0.0000 
H 5.0996 2.0235 0.0000 
H 4.4358 -1.4572 0.0000 
H 2.1302 -1.7628 0.0000 
H 1.3938 -2.2388 0.0000 
H 1.8698 -2.9752 0.0000 
H 2.1615 -3.4265 0.0000 
H 2.6375 -4.1629 0.0000 
H 3.3739 -3.6869 0.0000 
H 3.7939 -1.7315 0.0000 
H 3.3179 -0.9951 0.0000 
H 2.5815 -1.4711 0.0000 
H 3.8466 -4.2006 0.0000 
H 5.2640 -6.0445 0.0000 
H 6.0444 -6.4442 0.0000 
H 6.4441 -5.6638 0.0000 
H 4.4050 -4.6194 0.0000 
H 4.0053 -5.3998 0.0000 
H 4.7857 -5.7995 0.0000 
H 6.6891 -5.1855 0.0000 
H 7.0889 -4.4051 0.0000 
H 6.3085 -4.0054 0.0000 
H 6.5170 -3.3392 0.0000 
H 11.4568 1.5214 0.0000 
H 12.6473 2.6201 0.0000 
H 10.7443 4.6821 0.0000 
H 9.5538 3.5834 0.0000 
